<configuration>
    <input>
        <net-file value="../net/2x2.net.xml"/>
        <route-files value="../routes/2x2.rou.xml"/>
    </input>
    <time>
        <begin value="0"/>
        <end value="3600"/>
    </time>
</configuration>
