<configuration>
    <input>
        <net-file value="../net/3x3_tls.net.xml"/>
        <route-files value="../routes/3x3.rou.xml"/>
    </input>
    <time>
        <begin value="0"/>
        <end value="3600"/>
    </time>
</configuration>
